@<TRIPOS>MOLECULE
ABEBUI
    50    53     1     0     0
SMALL
NO_CHARGES
****
Generated from the CSD

@<TRIPOS>ATOM
     1 S1       2.1531   0.8737   9.8201   S.o2      1 RES1   0.0000
     2 F1       1.7904   2.4805   4.2002   F         1 RES1   0.0000
     3 O1       2.7240  -0.4427   9.7896   O.2       1 RES1   0.0000
     4 O2       0.9656   1.0565  10.5914   O.2       1 RES1   0.0000
     5 C1       1.9094   1.3722   8.1171   C.ar      1 RES1   0.0000
     6 C2       2.5833   0.6443   7.1565   C.ar      1 RES1   0.0000
     7 H2       3.0816  -0.0965   7.4168   H         1 RES1   0.0000
     8 C3       2.5370   0.9875   5.8158   C.ar      1 RES1   0.0000
     9 H3       2.9803   0.4855   5.1709   H         1 RES1   0.0000
    10 C4       1.8087   2.0995   5.4820   C.ar      1 RES1   0.0000
    11 C5       1.1214   2.8915   6.3957   C.ar      1 RES1   0.0000
    12 C6       0.3460   4.0414   5.9922   C.ar      1 RES1   0.0000
    13 H6       0.3067   4.2832   5.0950   H         1 RES1   0.0000
    14 C7      -0.3062   4.7510   6.8951   C.ar      1 RES1   0.0000
    15 H7      -0.7883   5.4991   6.6277   H         1 RES1   0.0000
    16 C8      -0.2799   4.3925   8.2476   C.ar      1 RES1   0.0000
    17 H8      -0.7574   4.9067   8.8565   H         1 RES1   0.0000
    18 C9       0.4278   3.3062   8.7078   C.ar      1 RES1   0.0000
    19 H9       0.4274   3.0912   9.6134   H         1 RES1   0.0000
    20 C10      1.1574   2.5184   7.7804   C.ar      1 RES1   0.0000
    21 C11      3.4006   2.0512  10.4258   C.3       1 RES1   0.0000
    22 H11      2.9744   2.9330  10.4044   H         1 RES1   0.0000
    23 C12      3.7208   1.7752  11.8854   C.ar      1 RES1   0.0000
    24 C13      3.4925   2.7682  12.8200   C.ar      1 RES1   0.0000
    25 H13      3.1077   3.5706  12.5497   H         1 RES1   0.0000
    26 C14      3.8276   2.5880  14.1526   C.ar      1 RES1   0.0000
    27 H14      3.6650   3.2744  14.7596   H         1 RES1   0.0000
    28 C15      4.3962   1.4131  14.6004   C.ar      1 RES1   0.0000
    29 C16      4.6063   0.4153  13.6603   C.ar      1 RES1   0.0000
    30 H16      4.9826  -0.3902  13.9344   H         1 RES1   0.0000
    31 C17      4.2754   0.5807  12.3310   C.ar      1 RES1   0.0000
    32 H17      4.4247  -0.1118  11.7284   H         1 RES1   0.0000
    33 C18      4.7610   1.1951  16.0496   C.3       1 RES1   0.0000
    34 H18A     5.7059   1.3184  16.1633   H         1 RES1   0.0000
    35 H18B     4.5205   0.3023  16.3093   H         1 RES1   0.0000
    36 H18C     4.2877   1.8259  16.5977   H         1 RES1   0.0000
    37 C19      4.5874   2.1337   9.4823   C.ar      1 RES1   0.0000
    38 C20      5.4830   1.0968   9.2609   C.ar      1 RES1   0.0000
    39 H20      5.3574   0.2815   9.6892   H         1 RES1   0.0000
    40 C21      6.5584   1.2635   8.4117   C.ar      1 RES1   0.0000
    41 H21      7.1382   0.5490   8.2780   H         1 RES1   0.0000
    42 C22      6.8009   2.4378   7.7605   C.ar      1 RES1   0.0000
    43 C23      5.9055   3.4601   7.9707   C.ar      1 RES1   0.0000
    44 H23      6.0365   4.2722   7.5363   H         1 RES1   0.0000
    45 C24      4.8155   3.3123   8.8123   C.ar      1 RES1   0.0000
    46 H24      4.2267   4.0231   8.9267   H         1 RES1   0.0000
    47 C25      8.0145   2.6161   6.8754   C.3       1 RES1   0.0000
    48 H25A     8.7330   2.9941   7.3883   H         1 RES1   0.0000
    49 H25B     7.7963   3.2042   6.1478   H         1 RES1   0.0000
    50 H25C     8.2839   1.7630   6.5271   H         1 RES1   0.0000
@<TRIPOS>BOND
     1     1     3    2
     2     1     4    2
     3     1     5    1
     4     1    21    1
     5     2    10    1
     6     5     6   ar
     7     5    20   ar
     8     6     7    1
     9     6     8   ar
    10     8     9    1
    11     8    10   ar
    12    10    11   ar
    13    11    12   ar
    14    11    20   ar
    15    12    13    1
    16    12    14   ar
    17    14    15    1
    18    14    16   ar
    19    16    17    1
    20    16    18   ar
    21    18    19    1
    22    18    20   ar
    23    21    22    1
    24    21    23    1
    25    21    37    1
    26    23    24   ar
    27    23    31   ar
    28    24    25    1
    29    24    26   ar
    30    26    27    1
    31    26    28   ar
    32    28    29   ar
    33    28    33    1
    34    29    30    1
    35    29    31   ar
    36    31    32    1
    37    33    34    1
    38    33    35    1
    39    33    36    1
    40    37    38   ar
    41    37    45   ar
    42    38    39    1
    43    38    40   ar
    44    40    41    1
    45    40    42   ar
    46    42    43   ar
    47    42    47    1
    48    43    44    1
    49    43    45   ar
    50    45    46    1
    51    47    48    1
    52    47    49    1
    53    47    50    1
@<TRIPOS>SUBSTRUCTURE
     1 RES1        1 GROUP             0 ****  ****    0  
@<TRIPOS>CRYSIN
   17.7536    6.1067   19.1597   90.0000   98.0960   90.0000   231     1
