@<TRIPOS>MOLECULE
CPT
7 6 1 0 0
SMALL
NO_CHARGES

@<TRIPOS>ATOM
     1 Pt1   -0.0000   0.0000   0.0000  Pt  1 CPT  0.000
     2 Cl1    2.2897   0.0000   0.0000  Cl  1 CPT  0.000
     3 Cl2   -2.2897   0.0000   0.0000  Cl  1 CPT  0.000
     4 N1     0.0000   2.1000   0.0000  N   1 CPT  0.000
     5 N2     0.0000  -2.1000   0.0000  N   1 CPT  0.000
...

@<TRIPOS>BOND
     1 1 2 1
     2 1 3 1
     3 1 4 1
     4 1 5 1
