@<TRIPOS>MOLECULE
GLC
 24 24 0 0 0
SMALL
GASTEIGER

@<TRIPOS>ATOM
      1 C           8.5370   13.1410   37.4360 C.3     1  UNL1        0.1854
      2 C           8.6570   12.6250   38.8660 C.3     1  UNL1        0.1339
      3 C           8.9460   13.7530   39.8190 C.3     1  UNL1        0.1141
      4 C          10.1450   14.5230   39.3600 C.3     1  UNL1        0.1119
      5 C           9.8470   15.1610   37.9650 C.3     1  UNL1        0.1130
      6 C          11.1090   15.8230   37.3730 C.3     1  UNL1        0.0730
      7 O           7.3430   13.7470   37.2600 O.3     1  UNL1       -0.3649
      8 O           7.4300   12.0310   39.2450 O.3     1  UNL1       -0.3841
      9 O           9.2530   13.1490   41.0940 O.3     1  UNL1       -0.3864
     10 O          10.3170   15.6750   40.2450 O.3     1  UNL1       -0.3865
     11 O           9.3520   14.1830   37.0850 O.3     1  UNL1       -0.3407
     12 O          10.5830   16.5420   36.2380 O.3     1  UNL1       -0.3924
     13 H           8.7560   12.2300   36.8600 H       1  UNL1        0.0935
     14 H           9.4800   11.8960   38.9060 H       1  UNL1        0.0671
     15 H           8.0870   14.4370   39.8790 H       1  UNL1        0.0648
     16 H          11.0120   13.8470   39.3410 H       1  UNL1        0.0647
     17 H           9.0860   15.9440   38.1010 H       1  UNL1        0.0647
     18 H          11.5950   16.4960   38.0950 H       1  UNL1        0.0584
     19 H          11.8940   15.1010   37.1050 H       1  UNL1        0.0584
     20 H           6.9320   13.8890   38.1050 H       1  UNL1        0.2126
     21 H           7.4190   11.8980   40.1860 H       1  UNL1        0.2101
     22 H           9.3200   12.2070   40.9910 H       1  UNL1        0.2100
     23 H          10.3540   15.3790   41.1470 H       1  UNL1        0.2100
     24 H          10.4670   17.4570   36.4680 H       1  UNL1        0.2095
@<TRIPOS>BOND
     1    12    24    1
     2    12     6    1
     3    13     1    1
     4    11     1    1
     5    11     5    1
     6    19     6    1
     7     7     1    1
     8     7    20    1
     9     6     5    1
    10     6    18    1
    11     1     2    1
    12     5    17    1
    13     5     4    1
    14     2    14    1
    15     2     8    1
    16     2     3    1
    17     8    21    1
    18    16     4    1
    19     4     3    1
    20     4    10    1
    21     3    15    1
    22     3     9    1
    23    10    23    1
    24    22     9    1
