@<TRIPOS>MOLECULE
GLC
 24 24 0 0 0
SMALL
GASTEIGER

@<TRIPOS>ATOM
      1 C          -0.5670    1.5720   -0.2450 C.3     1  UNL1        0.1854
      2 C          -1.5780    0.4650   -0.5540 C.3     1  UNL1        0.1339
      3 C          -1.1790   -0.8060    0.2030 C.3     1  UNL1        0.1141
      4 C           0.2490   -1.1950   -0.1920 C.3     1  UNL1        0.1119
      5 C           1.1890   -0.0240    0.1020 C.3     1  UNL1        0.1130
      6 C           2.6070   -0.3830   -0.3450 C.3     1  UNL1        0.0730
      7 O          -0.6000    1.8710    1.1510 O.3     1  UNL1       -0.3649
      8 O          -2.8810    0.8790   -0.1390 O.3     1  UNL1       -0.3841
      9 O          -2.0750   -1.8660   -0.1370 O.3     1  UNL1       -0.3864
     10 O           0.6580   -2.3380    0.5620 O.3     1  UNL1       -0.3865
     11 O           0.7440    1.1330   -0.6080 O.3     1  UNL1       -0.3407
     12 O           3.5060    0.6610    0.0350 O.3     1  UNL1       -0.3924
     13 H          -0.8220    2.4660   -0.8150 H       1  UNL1        0.0935
     14 H          -1.5830    0.2640   -1.6260 H       1  UNL1        0.0671
     15 H          -1.2230   -0.6190    1.2760 H       1  UNL1        0.0648
     16 H           0.2810   -1.4290   -1.2570 H       1  UNL1        0.0647
     17 H           1.1870    0.1840    1.1730 H       1  UNL1        0.0647
     18 H           2.9130   -1.3150    0.1290 H       1  UNL1        0.0584
     19 H           2.6270   -0.5030   -1.4280 H       1  UNL1        0.0584
     20 H           0.0170    2.5660    1.4200 H       1  UNL1        0.2126
     21 H          -3.1970    1.6820   -0.5760 H       1  UNL1        0.2101
     22 H          -3.0000   -1.6840    0.0800 H       1  UNL1        0.2100
     23 H           0.1020   -3.1180    0.4270 H       1  UNL1        0.2100
     24 H           4.4250    0.5010   -0.2180 H       1  UNL1        0.2095
@<TRIPOS>BOND
     1    14     2    1
     2    19     6    1
     3    16     4    1
     4    13     1    1
     5    11     1    1
     6    11     5    1
     7    21     8    1
     8     2     1    1
     9     2     8    1
    10     2     3    1
    11     6    12    1
    12     6     5    1
    13     6    18    1
    14     1     7    1
    15    24    12    1
    16     4     5    1
    17     4     3    1
    18     4    10    1
    19     9    22    1
    20     9     3    1
    21     5    17    1
    22     3    15    1
    23    23    10    1
    24     7    20    1
